-------------------------------------------------------
          Amber 14 SANDER                              2014
          -------------------------------------------------------

  [-O]verwriting output

File Assignments:

 Here is the input file:

 production run 20 ns (nstlim*dt=length_picoseconds)
&cntrl
  ig = -1
  imin   = 0,
  irest  = 1,
  ntx    = 5,
  ntb    = 2,
  pres0  = 1.0,
  ntp    = 1,
  taup   = 1.0,
  cut    = 10.0,
  ntr    = 0,
  ntc    = 2,
  ntf    = 2,
  tempi  = 300.0,
  temp0  = 300.0,
  ntt    = 3,
  gamma_ln = 1.0,
  nstlim = 500000, dt = 0.002
  ntpr = 1000, ntwx = 5000, ntwr = 500, iwrap=1
  ioutfm =1
/

Note: ig = -1. Setting random seed to   918241 based on wallclock time in
      microseconds and disabling the synchronization of random numbers
      between tasks to improve performance.

--------------------------------------------------------------------------------
   1.  RESOURCE   USE:
--------------------------------------------------------------------------------

 getting new box info from bottom of inpcrd
 NATOM  =   30338 NTYPES =      17 NBONH =   29021 MBONA  =    1331
 NTHETH =    2996 MTHETA =    1792 NPHIH =    5862 MPHIA  =    4113
 NHPARM =       0 NPARM  =       0 NNB   =   51410 NRES   =    9402
 NBONA  =    1331 NTHETA =    1792 NPHIA =    4113 NUMBND =      51
 NUMANG =     102 NPTRA  =      49 NATYP =      38 NPHB   =       1
 IFBOX  =       1 NMXRS  =      24 IFCAP =       0 NEXTRA =       0
 NCOPY  =       0

     BOX TYPE: RECTILINEAR

--------------------------------------------------------------------------------
   2.  CONTROL  DATA  FOR  THE  RUN
--------------------------------------------------------------------------------

default_name

General flags:
     imin    =       0, nmropt  =       0

Nature and format of input:
     ntx     =       5, irest   =       1, ntrx    =       1

Nature and format of output:
     ntxo    =       1, ntpr    =    1000, ntrx    =       1, ntwr    =     500
     iwrap   =       1, ntwx    =    5000, ntwv    =       0, ntwe    =       0
     ioutfm  =       1, ntwprt  =       0, idecomp =       0, rbornstat=      0

Potential function:
     ntf     =       2, ntb     =       2, igb     =       0, nsnb    =      25
     ipol    =       0, gbsa    =       0, iesp    =       0
     dielc   =   1.00000, cut     =  10.00000, intdiel =   1.00000

Frozen or restrained atoms:
     ibelly  =       0, ntr     =       0

Molecular dynamics:
     nstlim  =    500000, nscm    =      1000, nrespa  =         1
     t       =   0.00000, dt      =   0.00200, vlimit  =  20.00000

Langevin dynamics temperature regulation:
     ig      =  918241
     temp0   = 300.00000, tempi   = 300.00000, gamma_ln=   1.00000

Pressure regulation:
     ntp     =       1
     pres0   =   1.00000, comp    =  44.60000, taup    =   1.00000

SHAKE:
     ntc     =       2, jfastw  =       0
     tol     =   0.00001

Ewald parameters:
     verbose =       0, ew_type =       0, nbflag  =       1, use_pme =       1
     vdwmeth =       1, eedmeth =       1, netfrc  =       1
     Box X =   61.863   Box Y =   67.912   Box Z =   72.310
     Alpha =   90.000   Beta  =   90.000   Gamma =   90.000
     NFFT1 =   64       NFFT2 =   72       NFFT3 =   75
     Cutoff=   10.000   Tol   =0.100E-04
     Ewald Coefficient =  0.27511
     Interpolation order =    4

--------------------------------------------------------------------------------
   3.  ATOMIC COORDINATES AND VELOCITIES
--------------------------------------------------------------------------------

default_name
 begin time read from input coords =   460.000 ps

 Number of triangulated 3-point waters found:     9232

     Sum of charges from parm topology file =  -0.00000019
     Forcing neutrality...

--------------------------------------------------------------------------------
   4.  RESULTS
 NSTEP =     1000   TIME(PS) =     462.000  TEMP(K) =   300.72  PRESS =  -102.3
 Etot   =    -74355.6102  EKtot   =     18523.4095  EPtot      =    -92879.0197
 BOND   =       479.5112  ANGLE   =      1319.8874  DIHED      =      1760.1646
 1-4 NB =       606.7867  1-4 EEL =      6459.4378  VDWAALS    =     11448.8512
 EELEC  =   -114953.6586  EHBOND  =         0.0000  RESTRAINT  =         0.0000
 EKCMT  =      8370.6586  VIRIAL  =      9041.2442  VOLUME     =    303523.8544
                                                    Density    =         1.0131
 Ewald error estimate:   0.4231E-05
 ------------------------------------------------------------------------------

      A V E R A G E S   O V E R     500 S T E P S

 NSTEP =   500000   TIME(PS) =    1460.000  TEMP(K) =   300.11  PRESS =    -2.9
 Etot   =    -74623.5815  EKtot   =     18485.6457  EPtot      =    -93109.2272
 BOND   =       495.1161  ANGLE   =      1257.9735  DIHED      =      1777.6631
 1-4 NB =       609.7442  1-4 EEL =      6538.6841  VDWAALS    =     11497.9755
 EELEC  =   -115286.3837  EHBOND  =         0.0000  RESTRAINT  =         0.0000
 EKCMT  =      8297.0563  VIRIAL  =      8316.0956  VOLUME     =    303708.7988
                                                    Density    =         1.0125
 Ewald error estimate:   0.7057E-04
 ------------------------------------------------------------------------------

      R M S  F L U C T U A T I O N S

 NSTEP =   500000   TIME(PS) =    1460.000  TEMP(K) =     1.67  PRESS =   124.4
 Etot   =       181.0313  EKtot   =       102.8068  EPtot      =       150.6004
 BOND   =        18.4554  ANGLE   =        26.8724  DIHED      =        15.9333
 1-4 NB =        10.5659  1-4 EEL =        37.9682  VDWAALS    =       134.6211
 EELEC  =       229.3586  EHBOND  =         0.0000  RESTRAINT  =         0.0000
 EKCMT  =        68.9422  VIRIAL  =       817.7591  VOLUME     =       449.7374
                                                    Density    =         0.0015
 Ewald error estimate:   0.5321E-04
 ------------------------------------------------------------------------------
